Version 4
SHEET 1 880 680
WIRE 384 80 224 80
WIRE 544 80 464 80
WIRE -32 96 -144 96
WIRE 128 96 48 96
WIRE 224 112 224 80
WIRE -144 144 -144 96
WIRE 544 144 544 80
WIRE 128 160 128 96
WIRE 160 160 128 160
WIRE -144 288 -144 224
WIRE 224 288 224 208
WIRE 544 288 544 224
FLAG 224 288 0
FLAG 544 288 0
FLAG -144 288 0
SYMBOL npn 160 112 R0
SYMATTR InstName Q1
SYMATTR Value BC547B
SYMBOL res 64 80 R90
WINDOW 0 0 56 VBottom 2
WINDOW 3 32 56 VTop 2
SYMATTR InstName R1
SYMATTR Value 99k
SYMBOL res 480 64 R90
WINDOW 0 0 56 VBottom 2
WINDOW 3 32 56 VTop 2
SYMATTR InstName R2
SYMATTR Value 99
SYMBOL voltage -144 128 R0
WINDOW 3 24 44 Left 2
WINDOW 123 0 0 Left 2
WINDOW 39 0 0 Left 2
SYMATTR InstName V1
SYMATTR Value 9
SYMBOL voltage 544 128 R0
WINDOW 123 0 0 Left 2
WINDOW 39 0 0 Left 2
SYMATTR InstName V2
SYMATTR Value 10
TEXT 112 -112 Left 2 !.dc V2 0 10 0.05
